@<TRIPOS>MOLECULE
1_1_1_trifluoro_N__trifluoromethylsulfonyl_methanesulfonimidate.pdb
 15 14 0 0 0
SMALL
GASTEIGER

@<TRIPOS>ATOM
      1  C1         2.3000   -0.0390   -0.3600 C.3     1  UNL1        0.343055
      2  F1         2.5080    0.9760    0.5210 F       1  UNL1       -0.101799
      3  F2         3.3780   -0.0440   -1.1960 F       1  UNL1        -0.15623
      4  F3         2.3520   -1.2070    0.3400 F       1  UNL1        -0.13662
      5  S1         0.7110    0.1350   -1.2950 S.3     1  UNL1        0.770639
      6  N1        -0.3000   -0.9440   -0.4990 N.2     1  UNL1       -0.531148
      7  S2        -0.8830   -0.4870    1.0080 S.O2    1  UNL1        0.771865
      8  O1         0.2250    0.1180    1.7290 O.2     1  UNL1       -0.428917
      9  O2        -1.5150   -1.6700    1.5710 O.2     1  UNL1       -0.425387
     10  C2        -2.1710    0.7720    0.5740 C.3     1  UNL1        0.343383
     11  F4        -1.7420    2.0500    0.7530 F       1  UNL1       -0.101701
     12  F5        -2.5810    0.6540   -0.7200 F       1  UNL1       -0.136735
     13  F6        -3.2890    0.6340    1.3440 F       1  UNL1       -0.156639
     14  O3         0.1390    1.4600   -1.1240 O.2     1  UNL1       -0.428686
     15  O4         0.8700   -0.3840   -2.6460 O.co2   1  UNL1        -0.42508
@<TRIPOS>BOND
     1     1     2    1
     2     1     3    1
     3     1     4    1
     4     1     5    1
     5     5     6    2
     6     5    14    2
     7     5    15    1
     8     6     7    1
     9     7     8    2
    10     7     9    2
    11     7    10    1
    12    10    11    1
    13    10    12    1
    14    10    13    1
