@<TRIPOS>MOLECULE
1_1_1_trifluoro_N__trifluoromethylsulfonyl_methanesulfonimidate_ob.pdb
 15 14 0 0 0
SMALL
GASTEIGER

@<TRIPOS>ATOM
      1  C          3.2150   -1.2420   -1.0750 C.3     1  UNL1        0.4980
      2  F          3.6080   -2.4440   -0.5640 F       1  UNL1       -0.1518
      3  F          2.0400   -1.4710   -1.7310 F       1  UNL1       -0.1518
      4  F          4.1290   -0.9090   -2.0310 F       1  UNL1       -0.1518
      5  S          3.0430    0.0530    0.2160 S.3     1  UNL1       -0.0656
      6  N          1.3720    0.1160    0.3650 N.2     1  UNL1       -0.0445
      7  S          0.7060    1.4520    1.1380 S.O2    1  UNL1        0.1811
      8  O         -0.6880    1.1040    1.3810 O.2     1  UNL1       -0.1418
      9  O          1.5420    1.8010    2.2720 O.2     1  UNL1       -0.1418
     10  C          0.7940    2.7580   -0.1670 C.3     1  UNL1        0.5433
     11  F          1.1820    2.2520   -1.3750 F       1  UNL1       -0.1489
     12  F         -0.4260    3.3350   -0.3830 F       1  UNL1       -0.1489
     13  F          1.6470    3.7710    0.1430 F       1  UNL1       -0.1489
     14  O          3.4710    1.3410   -0.3050 O.2     1  UNL1       -0.1941
     15  O          3.5870   -0.4360    1.4690 O.co2   1  UNL1       -0.7323
@<TRIPOS>UNITY_ATOM_ATTR
15 1
charge -1
@<TRIPOS>BOND
     1     1     2    1
     2     1     3    1
     3     1     4    1
     4     1     5    1
     5     5    14    2
     6     5    15    1
     7     5     6    2
     8     6     7    1
     9     7     8    2
    10     7     9    2
    11     7    10    1
    12    10    11    1
    13    10    12    1
    14    10    13    1
