@<TRIPOS>MOLECULE
1_ethyl_3_methylimidazol_3_ium_ob.pdb
 19 19 0 0 0
SMALL
GASTEIGER

@<TRIPOS>ATOM
      1  C         -0.1110   -0.1430   -2.6740 C.3     1  UNL1       -0.0469
      2  C          0.4820   -0.6650   -1.3790 C.3     1  UNL1        0.0253
      3  N          0.9350   -2.0500   -1.5230 N.ar    1  UNL1       -0.2960
      4  C          0.1680   -3.1810   -1.2870 C.ar    1  UNL1        0.0732
      5  C          0.9670   -4.2580   -1.5360 C.ar    1  UNL1        0.1885
      6  N          2.2030   -3.7630   -1.9160 N.ar    1  UNL1       -0.1903
      7  C          2.1680   -2.4210   -1.9040 C.ar    1  UNL1        0.2477
      8  C          3.3700   -4.5590   -2.2740 C.3     1  UNL1        0.1419
      9  H          0.6220   -0.1950   -3.4850 H       1  UNL1        0.0247
     10  H         -0.4290    0.8970   -2.5600 H       1  UNL1        0.0247
     11  H         -0.9800   -0.7390   -2.9720 H       1  UNL1        0.0247
     12  H          1.3370   -0.0500   -1.0770 H       1  UNL1        0.0491
     13  H         -0.2590   -0.6220   -0.5730 H       1  UNL1        0.0491
     14  H         -0.8550   -3.0670   -0.9720 H       1  UNL1        0.0871
     15  H          0.8160   -5.3240   -1.4910 H       1  UNL1        0.1392
     16  H          2.9870   -1.7560   -2.1560 H       1  UNL1        0.1600
     17  H          3.6670   -4.3180   -3.2980 H       1  UNL1        0.0994
     18  H          4.1850   -4.3250   -1.5840 H       1  UNL1        0.0994
     19  H          3.1340   -5.6240   -2.2070 H       1  UNL1        0.0994
@<TRIPOS>UNITY_ATOM_ATTR
6 1
charge 1
@<TRIPOS>BOND
     1     1     2    1
     2     1     9    1
     3     1    10    1
     4     1    11    1
     5     2     3    1
     6     2    12    1
     7     2    13    1
     8     3     4   ar
     9     3     7   ar
    10     4     5   ar
    11     4    14    1
    12     5     6   ar
    13     5    15    1
    14     6     7   ar
    15     6     8    1
    16     7    16    1
    17     8    17    1
    18     8    18    1
    19     8    19    1
