@<TRIPOS>MOLECULE
1_hexyl_3_methylimidazol_3_ium.pdb
 31 31 0 0 0
SMALL
GASTEIGER

@<TRIPOS>ATOM
      1  C1         4.1230   -1.0270   -0.0260 C.3     1  UNL1       -0.021285
      2  C2         3.1130   -0.3670    0.8990 C.3     1  UNL1        0.094413
      3  C3         2.2160    0.6580    0.1990 C.3     1  UNL1       -0.075029
      4  C4         1.2750    0.0320   -0.8340 C.3     1  UNL1       -0.014156
      5  C5         0.3670    1.0530   -1.5260 C.3     1  UNL1       -0.015663
      6  C6        -0.6360    1.7500   -0.6100 C.3     1  UNL1       -0.191095
      7  N1        -1.5610    0.8060    0.0250 N.ar    1  UNL1        0.102109
      8  C7        -1.5760    0.4520    1.3660 C.ar    1  UNL1       -0.135537
      9  C8        -2.5960   -0.4420    1.5270 C.ar    1  UNL1       -0.140903
     10  N2        -3.1820   -0.6070    0.2830 N.ar    1  UNL1        0.176249
     11  C9        -2.5490    0.1620   -0.6150 C.ar    1  UNL1       -0.083651
     12  C10       -4.3170   -1.4720   -0.0140 C.3     1  UNL1       -0.262807
     13  H1         4.7290   -0.2780   -0.5450 H       1  UNL1        0.013392
     14  H2         3.6320   -1.6560   -0.7750 H       1  UNL1        0.013392
     15  H3         4.7980   -1.6670    0.5510 H       1  UNL1        0.013392
     16  H4         2.4960   -1.1380    1.3760 H       1  UNL1       -0.025913
     17  H5         3.6590    0.1430    1.7020 H       1  UNL1       -0.025913
     18  H6         2.8380    1.4220   -0.2820 H       1  UNL1        0.032281
     19  H7         1.6300    1.1670    0.9720 H       1  UNL1        0.032281
     20  H8         0.6690   -0.7490   -0.3610 H       1  UNL1        0.014811
     21  H9         1.8670   -0.4620   -1.6130 H       1  UNL1        0.014811
     22  H10        0.9860    1.8140   -2.0170 H       1  UNL1        0.051826
     23  H11       -0.1820    0.5350   -2.3220 H       1  UNL1        0.051826
     24  H12       -1.2420    2.4520   -1.1950 H       1  UNL1        0.116325
     25  H13       -0.1320    2.3370    0.1650 H       1  UNL1        0.116325
     26  H14       -0.8500    0.8830    2.0350 H       1  UNL1        0.189423
     27  H15       -2.9860   -0.9860    2.3700 H       1  UNL1        0.180245
     28  H16       -2.7900    0.2480   -1.6680 H       1  UNL1        0.180311
     29  H17       -5.2110   -1.0600    0.4630 H       1  UNL1        0.132847
     30  H18       -4.1170   -2.4750    0.3720 H       1  UNL1        0.132847
     31  H19       -4.4710   -1.5250   -1.0950 H       1  UNL1        0.132846
@<TRIPOS>BOND
     1     1     2    1
     2     1    13    1
     3     1    14    1
     4     1    15    1
     5     2     3    1
     6     2    16    1
     7     2    17    1
     8     3     4    1
     9     3    18    1
    10     3    19    1
    11     4     5    1
    12     4    20    1
    13     4    21    1
    14     5     6    1
    15     5    22    1
    16     5    23    1
    17     6     7    1
    18     6    24    1
    19     6    25    1
    20     7     8   ar
    21     7    11   ar
    22     8     9   ar
    23     8    26    1
    24     9    10   ar
    25     9    27    1
    26    10    11   ar
    27    10    12    1
    28    11    28    1
    29    12    29    1
    30    12    30    1
    31    12    31    1
